src/test/resources/com/farao_community/farao/flow_decomposition/NETWORK_LOOP_FLOW.uct
##C 2007.05.01
This is a test network with only one branch linking a generator with a load.
Used to validate loop flow algorithm
##N
##ZFR
FGEN1 11 GEN          0 3 400.00 0.00000 0.00000 -100.00 0.00000 1000.00 -1000.0 1000.00 -1000.0
FGEN2 11 GEN          0 3 400.00 0.00000 0.00000 -100.00 0.00000 1000.00 -1000.0 1000.00 -1000.0
FLOAD 11 LOAD         0 0        200.000 0.00000 0.00000 0.00000
##L
FGEN1 11 FLOAD 11 1 0 1.0000 0.0500 0.000000    480 LINE
FLOAD 11 FGEN2 11 1 0 1.0000 0.0500 0.000000    480 LINE
